*KEYWORD
*TITLE
SALE structured mesh import example
*NODE
10,0.,0.,0.
*ALE_STRUCTURED_MESH_CONTROL_POINTS
101,1.,0.
1,0.
2,1.
*ALE_STRUCTURED_MESH_CONTROL_POINTS
102,1.,0.
1,0.
2,1.
*ALE_STRUCTURED_MESH_CONTROL_POINTS
103,1.,0.
1,0.
2,1.
*ALE_STRUCTURED_MESH
1,9,100,200
101,102,103,10,0
*ALE_STRUCTURED_MESH_REFINE
1,2,1,1
*PART
Water material part
20,1,1
*SECTION_SOLID
1,11
*MAT_NULL
1,1.,1000.
*ALE_MULTI-MATERIAL_GROUP
20,1
*SET_NODE_GENERAL
50
SALEFAC,1,1,0,0,0,0,0
*SET_SOLID_GENERAL
60
SALECPT,1,1,2,1,2,1,2
*BOUNDARY_SPC_SET
50,0,1,0,0,0,0,0
*INITIAL_VOLUME_FRACTION_GEOMETRY
9,1,1,0
6,2,1
0.,0.,0.,10.
*CONTROL_TERMINATION
1.
*DATABASE_BINARY_D3PLOT
0.01
*END
